!- General.inc
!-NOTE: All comments with '!-' are ignored by the IDFEditor and are generated automatically.
!-      Use '!' comments if they need to be retained when using the IDFEditor.
!-   ===========  ALL OBJECTS IN CLASS: VERSION ===========

  Version,8.5;

!-   ===========  ALL OBJECTS IN CLASS: SHADOWCALCULATION ===========

  ShadowCalculation,
    AverageOverDaysInFrequency,  !- Calculation Method
    20,                      !- Calculation Frequency
    50000;                   !- Maximum Figures in Shadow Overlap Calculations

!-   ===========  ALL OBJECTS IN CLASS: OUTPUTCONTROL:REPORTINGTOLERANCES ===========

  OutputControl:ReportingTolerances,
    1.0,                     !- Tolerance for Time Heating Setpoint Not Met {deltaC}
    1.0;                     !- Tolerance for Time Cooling Setpoint Not Met {deltaC}

!-   ===========  ALL OBJECTS IN CLASS: SURFACECONVECTIONALGORITHM:INSIDE ===========

  SurfaceConvectionAlgorithm:Inside,TARP;

!-   ===========  ALL OBJECTS IN CLASS: SURFACECONVECTIONALGORITHM:OUTSIDE ===========

  SurfaceConvectionAlgorithm:Outside,SimpleCombined;

!-   ===========  ALL OBJECTS IN CLASS: HEATBALANCEALGORITHM ===========

  HeatBalanceAlgorithm,ConductionTransferFunction;

!-   ===========  ALL OBJECTS IN CLASS: ZONECAPACITANCEMULTIPLIER:RESEARCHSPECIAL ===========

  ZoneCapacitanceMultiplier:ResearchSpecial,
    1,                       !- Temperature Capacity Multiplier
    1,                       !- Humidity Capacity Multiplier
    1,                       !- Carbon Dioxide Capacity Multiplier
    1.0;                     !- Generic Contaminant Capacity Multiplier

!-   ===========  ALL OBJECTS IN CLASS: SIMULATIONCONTROL ===========

  SimulationControl,
    Yes,                     !- Do Zone Sizing Calculation
    Yes,                     !- Do System Sizing Calculation
    No,                      !- Do Plant Sizing Calculation
    No,                      !- Run Simulation for Sizing Periods
    Yes;                     !- Run Simulation for Weather File Run Periods

!-   ===========  ALL OBJECTS IN CLASS: BUILDING ===========

  Building,
    Residential_Houston_slab_hp_attachment,  !- Name
    0,                       !- North Axis {deg}
    Suburbs,                 !- Terrain
    0.04,                    !- Loads Convergence Tolerance Value
    0.4,                     !- Temperature Convergence Tolerance Value {deltaC}
    FullExterior,            !- Solar Distribution
    25,                      !- Maximum Number of Warmup Days
    6;                       !- Minimum Number of Warmup Days

!-   ===========  ALL OBJECTS IN CLASS: TIMESTEP ===========

  Timestep,6;

!-   ===========  ALL OBJECTS IN CLASS: RUNPERIOD ===========

  RunPeriod,
    annual,                  !- Name
    1,                       !- Begin Month
    1,                       !- Begin Day of Month
    12,                      !- End Month
    31,                      !- End Day of Month
    UseWeatherFile,          !- Day of Week for Start Day
    Yes,                     !- Use Weather File Holidays and Special Days
    Yes,                     !- Use Weather File Daylight Saving Period
    No,                      !- Apply Weekend Holiday Rule
    Yes,                     !- Use Weather File Rain Indicators
    Yes,                     !- Use Weather File Snow Indicators
    1;                       !- Number of Times Runperiod to be Repeated

!-   Houston===========  ALL OBJECTS IN CLASS: SITE:WATERMAINSTEMPERATURE ===========

  Site:WaterMainsTemperature,
    Correlation,      !- Calculation method
    ,                 !- Temperature schedule name
    20.3166666666667, !- Annual average outdoor air temperature {C}
    17.8;             !- Maximum difference in monthly average outdoor air temperatures {C} 

!-   ===========  ALL OBJECTS IN CLASS: SITE:LOCATION ===========
! Location and design-day objects created by:
! Site:Location and design-day objects created by:
! /tools/bin/ddy2idf /phome/weather/EnergyPlus/tmy3/usa/zip/USA_TX_Houston-Bush.Intercontinental.AP.722430_TMY3.ddy

Site:Location,
  Houston Bush Intercontinental_TX_USA Design_Conditions,     !- Location Name
      30.00,     !- Latitude {N+ S-}
     -95.37,     !- Longitude {W- E+}
      -6.00,     !- Time Zone Relative to GMT {GMT+/-}
      29.00;     !- Elevation {m}
 
!-   ===========  ALL OBJECTS IN CLASS: SIZINGPERIOD:DESIGNDAY ===========
 SizingPeriod:DesignDay,
  Houston Bush Intercontinental Ann Htg 99.6% Condns DB,     !- Name
          1,      !- Month
         21,      !- Day of Month
  WinterDesignDay,!- Day Type
       -0.9,      !- Maximum Dry-Bulb Temperature {C}
        0.0,      !- Daily Dry-Bulb Temperature Range {C}
 DefaultMultipliers, !- Dry-Bulb Temperature Range Modifier Type
           ,      !- Dry-Bulb Temperature Range Modifier Day Schedule Name
    Wetbulb,      !- Humidity Condition Type
       -0.9,      !- Wetbulb at Maximum Dry-Bulb {C}
           ,      !- Humidity Indicating Day Schedule Name
           ,      !- Humidity Ratio at Maximum Dry-Bulb {kgWater/kgDryAir}
           ,      !- Enthalpy at Maximum Dry-Bulb {J/kg}
           ,      !- Daily Wet-Bulb Temperature Range {deltaC}
    100977.,      !- Barometric Pressure {Pa}
        2.5,      !- Wind Speed {m/s} design conditions vs. traditional 6.71 m/s (15 mph)
          0,      !- Wind Direction {Degrees; N=0, S=180}
         No,      !- Rain {Yes/No}
         No,      !- Snow on ground {Yes/No}
         No,      !- Daylight Savings Time Indicator
  ASHRAEClearSky, !- Solar Model Indicator
           ,      !- Beam Solar Day Schedule Name
           ,      !- Diffuse Solar Day Schedule Name
           ,      !- ASHRAE Clear Sky Optical Depth for Beam Irradiance (taub)
           ,      !- ASHRAE Clear Sky Optical Depth for Diffuse Irradiance (taud)
       0.00;      !- Clearness {0.0 to 1.1} 
 
 ! Houston Bush Intercontinental_TX_USA Annual Cooling (DB=>MWB) .4%, MaxDB=36.2°C MWB=24.8°C
 SizingPeriod:DesignDay,
  Houston Bush Intercontinental Ann Clg .4% Condns DB=>MWB,     !- Name
          7,      !- Month
         21,      !- Day of Month
  SummerDesignDay,!- Day Type
       36.2,      !- Maximum Dry-Bulb Temperature {C}
         10,      !- Daily Dry-Bulb Temperature Range {C}
 DefaultMultipliers, !- Dry-Bulb Temperature Range Modifier Type
           ,      !- Dry-Bulb Temperature Range Modifier Day Schedule Name
    Wetbulb,      !- Humidity Condition Type
       24.8,      !- Wetbulb at Maximum Dry-Bulb {C}
           ,      !- Humidity Indicating Day Schedule Name
           ,      !- Humidity Ratio at Maximum Dry-Bulb {kgWater/kgDryAir}
           ,      !- Enthalpy at Maximum Dry-Bulb {J/kg}
           ,      !- Daily Wet-Bulb Temperature Range {deltaC}
    100977.,      !- Barometric Pressure {Pa}
        3.5,      !- Wind Speed {m/s} design conditions vs. traditional 3.35 m/s (7mph)
        170,      !- Wind Direction {Degrees; N=0, S=180}
         No,      !- Rain {Yes/No}
         No,      !- Snow on ground {Yes/No}
         No,      !- Daylight Savings Time Indicator
       ASHRAETau, !- Solar Model Indicator
           ,      !- Beam Solar Day Schedule Name
           ,      !- Diffuse Solar Day Schedule Name
      0.399,      !- ASHRAE Clear Sky Optical Depth for Beam Irradiance (taub)
      2.381;      !- ASHRAE Clear Sky Optical Depth for Diffuse Irradiance (taud)	
 
!-  Material.inc
!-   ===========  ALL OBJECTS IN CLASS: MATERIAL ===========

!- wall insulation and framing material: R13
  Material, 
 	wall_consol_layer, !Name 
 	Rough,
 	0.0889, !{m}
 	0.05966275, !{W/m-K}
 	120.801, !{kg/m3}
 	1036.25775; !{J/kg-K}

Material,
  MAT-CC05 4 HW CONCRETE,                 !- Name
  Rough,                                  !- Roughness
  0.1016,                                 !- Thickness
  1.311,                                  !- Conductivity
  2240,                                   !- Density
  836.8,                                  !- Specific Heat
  0.9,                                    !- Abs Thermal
  0.7,                                    !- Abs Solar
  0.7;                                    !- Abs Visible

  Material,
    sheathing_consol_layer,  !- Name
    Rough,                   !- Roughness
    0.0127,                  !- Thickness {m}
    0.0940184,               !- Conductivity {W/m-K}
    685.008,                 !- Density {kg/m3}
    1172.332;                !- Specific Heat {J/kg-K}

  Material,
    ceil_consol_layer,       !- Name
    Rough,                   !- Roughness
    0.181,       !- Thickness {m}
    0.0617176,               !- Conductivity {W/m-K}
    41.9286,                 !- Density {kg/m3}
    776.25126;               !- Specific Heat {J/kg-K}

  Material,
    floor_consol_layer,      !- Name
    Rough,                   !- Roughness
    0.1397,                  !- Thickness {m}
    0.0485233,               !- Conductivity {W/m-K}
    55.074,                  !- Density {kg/m3}
    916.9311;                !- Specific Heat {J/kg-K}

  Material,
    bsmtwall_consol_layer,   !- Name
    Rough,                   !- Roughness
    0.0889,                  !- Thickness {m}
    0.05966275,              !- Conductivity {W/m-K}
    120.801,                 !- Density {kg/m3}
    1036.25775;              !- Specific Heat {J/kg-K}

  Material,
    crawlwall_consol_layer,  !- Name
    Rough,                   !- Roughness
    0.0889,                  !- Thickness {m}
    0.05966275,              !- Conductivity {W/m-K}
    120.801,                 !- Density {kg/m3}
    1036.25775;              !- Specific Heat {J/kg-K}

  Material,
    Very High Reflectivity Surface,  !- Name
    Smooth,                  !- Roughness
    0.0005,                  !- Thickness {m}
    237,                     !- Conductivity {W/m-K}
    2702,                    !- Density {kg/m3}
    903,                     !- Specific Heat {J/kg-K}
    0.90,                    !- Thermal Absorptance
    0.05,                    !- Solar Absorptance
    0.05;                    !- Visible Absorptance

  Material,
    GypsumBoard-5/16in,      !- Name
    Rough,                   !- Roughness
    7.93953E-03,             !- Thickness {m}
    0.1602906,               !- Conductivity {W/m-K}
    801,                     !- Density {kg/m3}
    465.2,                   !- Specific Heat {J/kg-K}
    0.9,                     !- Thermal Absorptance
    0.4,                     !- Solar Absorptance
    0.1;                     !- Visible Absorptance

  Material,
    CopperPipe,              !- Name
    MediumRough,             !- Roughness
    1.90500386169072E-02,    !- Thickness {m}
    401,                     !- Conductivity {W/m-K}
    2243.000,                !- Density {kg/m3}
    837.0000,                !- Specific Heat {J/kg-K}
    0.9000000,               !- Thermal Absorptance
    0.6500000,               !- Solar Absorptance
    0.6500000;               !- Visible Absorptance

  Material,
    F08 Metal surface,       !- Name
    Smooth,                  !- Roughness
    0.0008,                  !- Thickness {m}
    45.28,                   !- Conductivity {W/m-K}
    7824,                    !- Density {kg/m3}
    500;                     !- Specific Heat {J/kg-K}

  Material,
    Concrete_4in,            !- Name
    Rough,                   !- Roughness
    0.1014984,               !- Thickness {m}
    1.312098,                !- Conductivity {W/m-K}
    2242.8,                  !- Density {kg/m3}
    465.2;                   !- Specific Heat {J/kg-K}

  Material,
    Asphalt_shingle,         !- Name
    MediumRough,             !- Roughness
    6.33985285170672E-03,    !- Thickness {m}
    0.08186,                 !- Conductivity {W/m-K}
    1121.2917044623,         !- Density {kg/m3}
    1255.20000949809,        !- Specific Heat {J/kg-K}
    ,                        !- Thermal Absorptance
    0.75;                    !- Solar Absorptance

  Material,
    Wood_shingle,            !- Name
    MediumSmooth,            !- Roughness
    1.27000257446048E-02,    !- Thickness {m}
    0.11388,                 !- Conductivity {W/m-K}
    426.090847695673,        !- Density {kg/m3}
    1631.76001234752;        !- Specific Heat {J/kg-K}

  Material,
    Slate_shingle,           !- Name
    MediumSmooth,            !- Roughness
    1.27000257446048E-02,    !- Thickness {m}
    1.44219,                 !- Conductivity {W/m-K}
    1601.845292089,          !- Density {kg/m3}
    1255.20000949809;        !- Specific Heat {J/kg-K}

  Material,
    Stucco_1in,              !- Name
    MediumSmooth,            !- Roughness
    2.54000514892096E-02,    !- Thickness {m}
    1.39892,                 !- Conductivity {W/m-K}
    1922.2143505068,         !- Density {kg/m3}
    878.640006648665;        !- Specific Heat {J/kg-K}

  Material,
    Drywall_1/2in,           !- Name
    MediumSmooth,            !- Roughness
    1.27000257446048E-02,    !- Thickness {m}
    0.16009,                 !- Conductivity {W/m-K}
    800.922646044499,        !- Density {kg/m3}
    1087.84000823168;        !- Specific Heat {J/kg-K}

  Material,
    OSB_5/8in,               !- Name
    MediumSmooth,            !- Roughness
    0.015875032180756,       !- Thickness {m}
    0.1163,                  !- Conductivity {W/m-K}
    544.627399310259,        !- Density {kg/m3}
    1213.36000918149;        !- Specific Heat {J/kg-K}

  Material,
    OSB_5/16in,              !- Name
    MediumSmooth,            !- Roughness
    7.95E-03,                !- Thickness {m}
    0.1163,                  !- Conductivity {W/m-K}
    544.627399310259,        !- Density {kg/m3}
    1213.36000918149;        !- Specific Heat {J/kg-K}

  Material,
    Blown_R30,               !- Name
    MediumRough,             !- Roughness
    0.212598430964684,       !- Thickness {m}
    0.04119,                 !- Conductivity {W/m-K}
    9.61107175253399,        !- Density {kg/m3}
    836.800006332062;        !- Specific Heat {J/kg-K}

  Material,
    Blown_R30_top,           !- Name
    MediumRough,             !- Roughness
    0.117348237880148,       !- Thickness {m}
    0.04119,                 !- Conductivity {W/m-K}
    9.61107175253399,        !- Density {kg/m3}
    836.800006332062,        !- Specific Heat {J/kg-K}
    0.9,                     !- Thermal Absorptance
    0.7,                     !- Solar Absorptance
    0.7;                     !- Visible Absorptance

	Material,
    Plywood_3/4in,           !- Name
    Rough,                   !- Roughness
    0.01905,                 !- Thickness {m}
    0.1154577,               !- Conductivity {W/m-K}
    544.68,                  !- Density {kg/m3}
    674.54,                  !- Specific Heat {J/kg-K}
    0.9,                     !- Thermal Absorptance
    0.7,                     !- Solar Absorptance
    0.7;                     !- Visible Absorptance

  Material,
    Batt_R19,                !- Name
    MediumRough,             !- Roughness
    2.54000514892096E-02,    !- Thickness {m}
    3.47522010738099E-03,    !- Conductivity {W/m-K}
    9.61107175253399,        !- Density {kg/m3}
    836.800006332062,        !- Specific Heat {J/kg-K}
    0.9,                     !- Thermal Absorptance
    0.7,                     !- Solar Absorptance
    0.7;                     !- Visible Absorptance

  Material,
    Lumber_2x4,              !- Name
    Rough,                   !- Roughness
    0.0890016,               !- Thickness {m}
    0.1154577,               !- Conductivity {W/m-K}
    512.64,                  !- Density {kg/m3}
    767.58,                  !- Specific Heat {J/kg-K}
    0.9,                     !- Thermal Absorptance
    0.7,                     !- Solar Absorptance
    0.7;                     !- Visible Absorptance

  Material,
    Carpet_n_pad,            !- Name
    MediumSmooth,            !- Roughness
    2.54000514892096E-02,    !- Thickness {m}
    6.01314018580031E-02,    !- Conductivity {W/m-K}
    32.03690584178,          !- Density {kg/m3}
    836.800006332062,        !- Specific Heat {J/kg-K}
    0.9,                     !- Thermal Absorptance
    0.7,                     !- Solar Absorptance
    0.7;                     !- Visible Absorptance

  Material,
    Batt_R13,                !- Name
    MediumRough,             !- Roughness
    0.0889,                  !- Thickness {m}
    0.03876,                 !- Conductivity {W/m-K}
    9.61107175253399,        !- Density {kg/m3}
    836.800006332062,        !- Specific Heat {J/kg-K}
    0.9,                     !- Thermal Absorptance
    0.7,                     !- Solar Absorptance
    0.7;                     !- Visible Absorptance

  Material,
    OSB_1/2in,               !- Name
    MediumSmooth,            !- Roughness
    1.27000257446048E-02,    !- Thickness {m}
    0.1163,                  !- Conductivity {W/m-K}
    544.627399310259,        !- Density {kg/m3}
    1213.36000918149,        !- Specific Heat {J/kg-K}
    0.9,                     !- Thermal Absorptance
    0.7,                     !- Solar Absorptance
    0.7;                     !- Visible Absorptance

  Material,
    soil_12in,               !- Name
    Rough,                   !- Roughness
    0.3048,                  !- Thickness {m}
    1.731,                   !- Conductivity {W/m-K}
    1842.3,                  !- Density {kg/m3}
    232.6,                   !- Specific Heat {J/kg-K}
    0.9,                     !- Thermal Absorptance
    0.7,                     !- Solar Absorptance
    0.7;                     !- Visible Absorptance

  Material,
    door_const,              !- Name
    Smooth,                  !- Roughness
    0.031702180114817,       !- Thickness {m}
    0.036,                   !- Conductivity {W/m-K}
    512.64,                  !- Density {kg/m3}
    767.58;                  !- Specific Heat {J/kg-K}

  Material,
    GypsumBoard-1_2in,       !- Name
    Rough,                   !- Roughness
    0.01271016,              !- Thickness {m}
    0.1602906,               !- Conductivity {W/m-K}
    801,                     !- Density {kg/m3}
    465.2,                   !- Specific Heat {J/kg-K}
    0.9,                     !- Thermal Absorptance
    0.4,                     !- Solar Absorptance
    0.1;                     !- Visible Absorptance

  Material,
    Std Wood 6inch,          !- Name
    MediumSmooth,            !- Roughness
    0.15,                    !- Thickness {m}
    0.12,                    !- Conductivity {W/m-K}
    540.0000,                !- Density {kg/m3}
    1210,                    !- Specific Heat {J/kg-K}
    0.9000000,               !- Thermal Absorptance
    0.7000000,               !- Solar Absorptance
    0.7000000;               !- Visible Absorptance

  Material,
    Gypsum Board,            !- Name
    MediumSmooth,            !- Roughness
    0.0127,                  !- Thickness {m}
    0.15865084348,           !- Conductivity {W/m-K}
    640.7384,                !- Density {kg/m3}
    1130.436,                !- Specific Heat {J/kg-K}
    0.9,                     !- Thermal Absorptance
    0.5,                     !- Solar Absorptance
    0.5;                     !- Visible Absorptance

  Material,
    Framing Material,        !- Name
    MediumSmooth,            !- Roughness
    0.1090731423819117,      !- Thickness {m}
    0.49980013832000003,     !- Conductivity {W/m-K}
    61.510886400000004,      !- Density {kg/m3}
    163.28520000000003,      !- Specific Heat {J/kg-K}
    0.9,                     !- Thermal Absorptance
    0.7,                     !- Solar Absorptance
    0.7;                     !- Visible Absorptance

  Material,
    Plywood board 25.4mm,    !- Name
    Rough,                   !- Roughness
    0.0254,                  !- Thickness {m}
    0.106,                   !- Conductivity {W/m-K}
    544.628,                 !- Density {kg/m3}
    1884,                    !- Specific Heat {J/kg-K}
    0.9,                     !- Thermal Absorptance
    0.7,                     !- Solar Absorptance
    0.7;                     !- Visible Absorptance

  Material,
    EPS 19.5mm,              !- Name
    Rough,                   !- Roughness
    0.0195,                  !- Thickness {m}
    0.0361,                  !- Conductivity {W/m-K}
    20.023,                  !- Density {kg/m3}
    1465,                    !- Specific Heat {J/kg-K}
    0.9,                     !- Thermal Absorptance
    0.7,                     !- Solar Absorptance
    0.7;                     !- Visible Absorptance

  Material,
    Mineral fiber 61mm,      !- Name
    Rough,                   !- Roughness
    0.061,                   !- Thickness {m}
    0.0288,                  !- Conductivity {W/m-K}
    32.037,                  !- Density {kg/m3}
    837,                     !- Specific Heat {J/kg-K}
    0.9,                     !- Thermal Absorptance
    0.7,                     !- Solar Absorptance
    0.7;                     !- Visible Absorptance

  Material,
    Stone 25.4mm,            !- Name
    MediumSmooth,            !- Roughness
    0.0254,                  !- Thickness {m}
    1.8027,                  !- Conductivity {W/m-K}
    2242,                    !- Density {kg/m3}
    837,                     !- Specific Heat {J/kg-K}
    0.9,                     !- Thermal Absorptance
    0.7,                     !- Solar Absorptance
    0.7;                     !- Visible Absorptance

  Material,
    EPS 47.6mm,              !- Name
    Rough,                   !- Roughness
    0.0476,                  !- Thickness {m}
    0.0361,                  !- Conductivity {W/m-K}
    20.023,                  !- Density {kg/m3}
    1465,                    !- Specific Heat {J/kg-K}
    0.9,                     !- Thermal Absorptance
    0.7,                     !- Solar Absorptance
    0.7;                     !- Visible Absorptance

  Material,
    EPS 36.2mm,              !- Name
    Rough,                   !- Roughness
    0.0362,                  !- Thickness {m}
    0.0361,                  !- Conductivity {W/m-K}
    20.023,                  !- Density {kg/m3}
    1465,                    !- Specific Heat {J/kg-K}
    0.9,                     !- Thermal Absorptance
    0.7,                     !- Solar Absorptance
    0.7;                     !- Visible Absorptance

  Material,
    Gypsum board 15.88mm,    !- Name
    MediumSmooth,            !- Roughness
    0.01588,                 !- Thickness {m}
    0.15865084348,           !- Conductivity {W/m-K}
    640.7384,                !- Density {kg/m3}
    1130.436,                !- Specific Heat {J/kg-K}
    0.9,                     !- Thermal Absorptance
    0.5,                     !- Solar Absorptance
    0.5;                     !- Visible Absorptance

  Material,
    Glass fiber-batt 88.9mm, !- Name
    MediumSmooth,            !- Roughness
    0.0889,                  !- Thickness {m}
    0.0433,                  !- Conductivity {W/m-K}
    12.014,                  !- Density {kg/m3}
    837,                     !- Specific Heat {J/kg-K}
    0.9,                     !- Thermal Absorptance
    0.5,                     !- Solar Absorptance
    0.5;                     !- Visible Absorptance

  Material,
    EPS 96.5mm,              !- Name
    Rough,                   !- Roughness
    0.0965,                  !- Thickness {m}
    0.0361,                  !- Conductivity {W/m-K}
    20.023,                  !- Density {kg/m3}
    1465,                    !- Specific Heat {J/kg-K}
    0.9,                     !- Thermal Absorptance
    0.7,                     !- Solar Absorptance
    0.7;                     !- Visible Absorptance

  Material,
    EPS 99.06mm,             !- Name
    Rough,                   !- Roughness
    0.09906,                 !- Thickness {m}
    0.0361,                  !- Conductivity {W/m-K}
    20.023,                  !- Density {kg/m3}
    1465,                    !- Specific Heat {J/kg-K}
    0.9,                     !- Thermal Absorptance
    0.7,                     !- Solar Absorptance
    0.7;                     !- Visible Absorptance

  Material,
    Mineral fiber 21.4mm,    !- Name
    Rough,                   !- Roughness
    0.0214,                  !- Thickness {m}
    0.0288,                  !- Conductivity {W/m-K}
    32.037,                  !- Density {kg/m3}
    837,                     !- Specific Heat {J/kg-K}
    0.9,                     !- Thermal Absorptance
    0.7,                     !- Solar Absorptance
    0.7;                     !- Visible Absorptance

  Material,
    Pipe Insulation,         !- Name
    VeryRough,               !- Roughness
    0.0127032520325203,      !- Thickness {m}
    0.03317175,              !- Conductivity {W/m-K}
    91.0,                    !- Density {kg/m3}
    836.0,                   !- Specific Heat {J/kg-K}
    0.9,                     !- Thermal Absorptance
    0.5,                     !- Solar Absorptance
    0.5;                     !- Visible Absorptance

!-   ===========  ALL OBJECTS IN CLASS: MATERIAL:NOMASS ===========

  Material:NoMass,
    Manf_wall_airgap,        !- Name
    Smooth,                  !- Roughness
    0.12;                    !- Thermal Resistance {m2-K/W}

  Material:NoMass,
    Bldg_paper_felt,         !- Name
    Smooth,                  !- Roughness
    1.05666113069662E-02;    !- Thermal Resistance {m2-K/W}

  Material:NoMass,
    R_high,                  !- Name
    MediumRough,             !- Roughness
    177;                     !- Thermal Resistance {m2-K/W}

!-   ===========  ALL OBJECTS IN CLASS: MATERIAL:AIRGAP ===========

  Material:AirGap,
    Air_4_in_vert,           !- Name
    0.158499169604493;       !- Thermal Resistance {m2-K/W}

!-  Construction.inc
!-   ===========  ALL OBJECTS IN CLASS: CONSTRUCTION ===========
! The following insulation requirement are based on IECC 1998 standard

Construction,
	Exterior Slab,
	MAT-CC05 4 HW CONCRETE,  !- Layer 1
    Carpet_n_pad;            !- Layer 2

Construction,
    Interior Floor,          !- Name
    Plywood_3/4in,           !- Outside Layer
    Carpet_n_pad;            !- Layer 2

Construction,
    Exterior Wall,           !- Name
    Stucco_1in,              !- Outside Layer
    Bldg_paper_felt,         !- Layer 2
    sheathing_consol_layer, !- Layer 3
    OSB_5/8in,               !- Layer 4
    wall_consol_layer,             !- Layer 5
    Drywall_1/2in;           !- Layer 6

  Construction,
    Interior Wall,           !- Name             No requirement
    Gypsum Board,            !- Outside Layer    R0.08
    Framing Material,        !- Layer 2          R0.22
    Gypsum Board;            !- Layer 3          R0.08

Construction,
    Interior Ceiling,        !- Name
    ceil_consol_layer,              !- Outside Layer
    Drywall_1/2in;           !- Layer 2

  Construction,
    Exterior Roof,           !- Name
    Asphalt_shingle,         !- Outside Layer
    OSB_1/2in;               !- Layer 2

  Construction,
    Exterior Door,           !- Name             R0.88 required for exterior door
    door_const;              !- Outside Layer    R0.88

  Construction,
    Gable_end,               !- Name
    Stucco_1in,              !- Outside Layer    R0.02
    Bldg_paper_felt,         !- Layer 2          R0.01
    OSB_5/8in,               !- Layer 3          R0.14
    Air_4_in_vert,           !- Layer 4          R0.16
    Drywall_1/2in;           !- Layer 5          R0.08

  Construction,
    InteriorFurnishings,     !- Name
    Std Wood 6inch;          !- Outside Layer

!- Window_configuration_baseline.inc
!- There are 4 seperated windows on each floor each orientation

  FenestrationSurface:Detailed,
    Window_ldf1_1_Bot.unit1, !- Name
    Window,                  !- Surface Type
    AERC_Baseline_B_GlzSys_DoubleClear,       !- Construction Name
    Wall_ldf1_1.unit1,       !- Building Surface Name
    ,                        !- Outside Boundary Condition Object
    ,                        !- View Factor to Ground
    ,                        !- Shading Control Name
    AERC_Baseline_B_Frame,         !- Frame and Divider Name
    1,                       !- Multiplier
    4,                       !- Number of Vertices
    2.500000000000,0.000000000000,0.600000000000,  !- X,Y,Z ==> Vertex 1 {m}
    3.823210000000,0.000000000000,0.600000000000,  !- X,Y,Z ==> Vertex 2 {m}
    3.823210000000,0.000000000000,1.273210000000,  !- X,Y,Z ==> Vertex 3 {m}
    2.500000000000,0.000000000000,1.273210000000;  !- X,Y,Z ==> Vertex 4 {m}

  FenestrationSurface:Detailed,
    Window_ldf1_1_Top.unit1, !- Name
    Window,                  !- Surface Type
    AERC_Baseline_B_GlzSys_DoubleClear,       !- Construction Name
    Wall_ldf1_1.unit1,       !- Building Surface Name
    ,                        !- Outside Boundary Condition Object
    ,                        !- View Factor to Ground
    ,                        !- Shading Control Name
    AERC_Baseline_B_Frame,         !- Frame and Divider Name
    1,                       !- Multiplier
    4,                       !- Number of Vertices
    2.500000000000,0.000000000000,1.350000000000,  !- X,Y,Z ==> Vertex 1 {m}
    3.823210000000,0.000000000000,1.350000000000,  !- X,Y,Z ==> Vertex 2 {m}
    3.823210000000,0.000000000000,2.023210000000,  !- X,Y,Z ==> Vertex 3 {m}
    2.500000000000,0.000000000000,2.023210000000;  !- X,Y,Z ==> Vertex 4 {m}

  FenestrationSurface:Detailed,
    Window_ldf1_2_Bot.unit1, !- Name
    Window,                  !- Surface Type
    AERC_Baseline_B_GlzSys_DoubleClear,       !- Construction Name
    Wall_ldf1_1.unit1,       !- Building Surface Name
    ,                        !- Outside Boundary Condition Object
    ,                        !- View Factor to Ground
    ,                        !- Shading Control Name
    AERC_Baseline_B_Frame,         !- Frame and Divider Name
    1,                       !- Multiplier