!- ##          COMFEN ENERGY PLUS PARAMETERS FILE
!- ##======================================================================
! general.inc
!-   ===========  ALL OBJECTS IN CLASS: VERSION ===========

  VERSION,8.0;

!-   ===========  ALL OBJECTS IN CLASS: BUILDING ===========

  Building,
    small_office,            !- Name
    0,                       !- North Axis {deg}
    Suburbs,                 !- Terrain
    0.04,                    !- Loads Convergence Tolerance Value
    0.4,                     !- Temperature Convergence Tolerance Value {deltaC}
    FullInteriorAndExteriorWithReflections,  !- Solar Distribution
    25,                      !- Maximum Number of Warmup Days
    6;                       !- Minimum Number of Warmup Days

  ShadowCalculation,
    AverageOverDaysInFrequency,
    20,                      !- Calculation Frequency
    50000;                   !- Maximum Figures in Shadow Overlap Calculations

!-   ===========  ALL OBJECTS IN CLASS: TIMESTEP IN HOUR ===========

  Timestep,4;

!-   ===========  ALL OBJECTS IN CLASS: INSIDE CONVECTION ALGORITHM ===========

  SurfaceConvectionAlgorithm:Inside,TARP;

!-   ===========  ALL OBJECTS IN CLASS: OUTSIDE CONVECTION ALGORITHM ===========

  SurfaceConvectionAlgorithm:Outside,SimpleCombined;

!-   ===========  ALL OBJECTS IN CLASS: SOLUTION ALGORITHM ===========

  HeatBalanceAlgorithm,ConductionTransferFunction;

  ZoneCapacitanceMultiplier:ResearchSpecial,
    1,                       !- Temperature Capacity Multiplier
    1,                       !- Humidity Capacity Multiplier
    1,                       !- Carbon Dioxide Capacity Multiplier
    1.0;                     !- Generic Contaminant Capacity Multiplier

!-   ===========  ALL OBJECTS IN CLASS: RUN CONTROL ===========

  SimulationControl,
    Yes,                     !- Do Zone Sizing Calculation
    Yes,                     !- Do System Sizing Calculation
    No,                      !- Do Plant Sizing Calculation
    No,                      !- Run Simulation for Sizing Periods
    Yes;                     !- Run Simulation for Weather File Run Periods

!-   ===========  ALL OBJECTS IN CLASS: RUNPERIOD ===========

  RunPeriod,
    datarun,                 !- Name
    1,                       !- Begin Month
    1,                       !- Begin Day of Month
    12,                      !- End Month
    31,                      !- End Day of Month
    UseWeatherFile,          !- Day of Week for Start Day
    No,                      !- Use Weather File Holidays and Special Days
    No,                      !- Use Weather File Daylight Saving Period
    Yes,                     !- Apply Weekend Holiday Rule
    Yes,                     !- Use Weather File Rain Indicators
    Yes;                     !- Use Weather File Snow Indicators

  RunPeriodControl:SpecialDays,
    New Years Day,           !- Name
    1 January,               !- Start Date
    1,                       !- Duration {days}
    Holiday;                 !- Special Day Type

  RunPeriodControl:SpecialDays,
    Martin Luther King Day,  !- Name
    3rd Monday in January,   !- Start Date
    1,                       !- Duration {days}
    Holiday;                 !- Special Day Type

  RunPeriodControl:SpecialDays,
    Washington's Birthday,   !- Name
    3rd Monday in February,  !- Start Date
    1,                       !- Duration {days}
    Holiday;                 !- Special Day Type

  RunPeriodControl:SpecialDays,
    Memorial Day,            !- Name
    Last Monday in May,      !- Start Date
    1,                       !- Duration {days}
    Holiday;                 !- Special Day Type

  RunPeriodControl:SpecialDays,
    Independence Day,        !- Name
    4 July,                  !- Start Date
    1,                       !- Duration {days}
    Holiday;                 !- Special Day Type

  RunPeriodControl:SpecialDays,
    Labor Day,               !- Name
    1st Monday in September, !- Start Date
    1,                       !- Duration {days}
    Holiday;                 !- Special Day Type

  RunPeriodControl:SpecialDays,
    Veteran's Day,           !- Name
    11 November,             !- Start Date
    1,                       !- Duration {days}
    Holiday;                 !- Special Day Type

  RunPeriodControl:SpecialDays,
    Thanksgiving Day,        !- Name
    4th Thursday in November,!- Start Date
    1,                       !- Duration {days}
    Holiday;                 !- Special Day Type

  RunPeriodControl:SpecialDays,
    Christmas Day,           !- Name
    25 December,             !- Start Date
    1,                       !- Duration {days}
    Holiday;                 !- Special Day Type

  RunPeriodControl:SpecialDays,
    New Year's Eve,          !- Name
    31 December,             !- Start Date
    1,                       !- Duration {days}
    Holiday;                 !- Special Day Type

!- ##======================================================================
!- ##          COMFEN LOCATION INFO FILE
!- ##======================================================================

  Site:Location,
    CHICAGO_IL_USA Design_Conditions,  !- Name
    41.78,                   !- Latitude {deg}
    -87.75,                  !- Longitude {deg}
    -6.00,                   !- Time Zone {hr}
    190.00;                  !- Elevation {m}

!- 4m depth undisturbed ground temperatures

  Site:GroundTemperature:BuildingSurface,5.79,3.71,3.25,3.88,7.01,10.37,13.46,15.61,16.11,14.89,12.22,8.95;

 ! CHICAGO_IL_USA Annual Heating Design Conditions Wind Speed=4.9m/s Wind Dir=270
 ! Coldest Month=JAN
 ! CHICAGO_IL_USA Annual Heating 99.6%, MaxDB=-20.6°C

  SizingPeriod:DesignDay,
    CHICAGO Ann Htg 99.6% Condns DB,  !- Name
    1,                       !- Month
    21,                      !- Day of Month
    WinterDesignDay,         !- Day Type
    -20.6,                   !- Maximum Dry-Bulb Temperature {C}
    0.0,                     !- Daily Dry-Bulb Temperature Range {deltaC}
    ,                        !- Dry-Bulb Temperature Range Modifier Type
    ,                        !- Dry-Bulb Temperature Range Modifier Schedule Name
    Wetbulb,                 !- Humidity Condition Type
    -20.6,                   !- Wetbulb or DewPoint at Maximum Dry-Bulb {C}
    ,                        !- Humidity Condition Day Schedule Name
    ,                        !- Humidity Ratio at Maximum Dry-Bulb {kgWater/kgDryAir}
    ,                        !- Enthalpy at Maximum Dry-Bulb {J/kg}
    ,                        !- Daily Wet-Bulb Temperature Range {deltaC}
    99063.,                  !- Barometric Pressure {Pa}
    4.9,                     !- Wind Speed {m/s}
    270,                     !- Wind Direction {deg}
    No,                      !- Rain Indicator
    No,                      !- Snow Indicator
    No,                      !- Daylight Saving Time Indicator
    ASHRAEClearSky,          !- Solar Model Indicator
    ,                        !- Beam Solar Day Schedule Name
    ,                        !- Diffuse Solar Day Schedule Name
    ,                        !- ASHRAE Clear Sky Optical Depth for Beam Irradiance (taub) {dimensionless}
    ,                        !- ASHRAE Clear Sky Optical Depth for Diffuse Irradiance (taud) {dimensionless}
    0.00;                    !- Sky Clearness

 ! CHICAGO Annual Cooling Design Conditions Wind Speed=5.3m/s Wind Dir=230
 ! Hottest Month=JUL
 ! CHICAGO_IL_USA Annual Cooling (DB=>MWB) .4%, MaxDB=33.2°C MWB=23.8°C

  SizingPeriod:DesignDay,
    CHICAGO Ann Clg .4% Condns DB=>MWB,  !- Name
    7,                       !- Month
    21,                      !- Day of Month
    SummerDesignDay,         !- Day Type
    33.2,                    !- Maximum Dry-Bulb Temperature {C}
    10.7,                    !- Daily Dry-Bulb Temperature Range {deltaC}
    ,                        !- Dry-Bulb Temperature Range Modifier Type
    ,                        !- Dry-Bulb Temperature Range Modifier Schedule Name
    Wetbulb,                 !- Humidity Condition Type
    23.8,                    !- Wetbulb or DewPoint at Maximum Dry-Bulb {C}
    ,                        !- Humidity Condition Day Schedule Name
    ,                        !- Humidity Ratio at Maximum Dry-Bulb {kgWater/kgDryAir}
    ,                        !- Enthalpy at Maximum Dry-Bulb {J/kg}
    ,                        !- Daily Wet-Bulb Temperature Range {deltaC}
    99063.,                  !- Barometric Pressure {Pa}
    5.3,                     !- Wind Speed {m/s}
    230,                     !- Wind Direction {deg}
    No,                      !- Rain Indicator
    No,                      !- Snow Indicator
    No,                      !- Daylight Saving Time Indicator
    ASHRAEClearSky,          !- Solar Model Indicator
    ,                        !- Beam Solar Day Schedule Name
    ,                        !- Diffuse Solar Day Schedule Name
    ,                        !- ASHRAE Clear Sky Optical Depth for Beam Irradiance (taub) {dimensionless}
    ,                        !- ASHRAE Clear Sky Optical Depth for Diffuse Irradiance (taud) {dimensionless}
    1.00;                    !- Sky Clearness

! material.inc
!-   ===========  ALL OBJECTS IN CLASS: Material:NoMass ===========

  Material:NoMass,
    IN-W,                    !- Name
    Rough,                   !- Roughness
    2.958648,                !- Thermal Resistance {m2-K/W}
    0.90,                    !- Thermal Absorptance
    0.75,                    !- Solar Absorptance
    0.75;                    !- Visible Absorptance

  Material:NoMass,
    IN-R,                    !- Name
    Rough,                   !- Roughness
    4.4025,                  !- Thermal Resistance {m2-K/W}
    0.90,                    !- Thermal Absorptance
    0.75,                    !- Solar Absorptance
    0.75;                    !- Visible Absorptance

  Material:NoMass,
    CP01,                    !- Name
    Rough,                   !- Roughness
    0.366,                   !- Thermal Resistance {m2-K/W}
    0.90,                    !- Thermal Absorptance
    0.75,                    !- Solar Absorptance
    0.75;                    !- Visible Absorptance

!-   ===========  ALL OBJECTS IN CLASS: MATERIAL:REGULAR ===========

  Material,
    BR01,                    !- Name
    VeryRough,               !- Roughness
    0.009525,                !- Thickness {m}
    0.163,                   !- Conductivity {W/m-K}
    1121,                    !- Density {kg/m3}
    1465,                    !- Specific Heat {J/kg-K}
    .8,                      !- Thermal Absorptance
    .8,                      !- Solar Absorptance
    .8;                      !- Visible Absorptance

  Material,
    BK05,                    !- Name
    VeryRough,               !- Roughness
    0.1016,                  !- Thickness {m}
    1.311,                   !- Conductivity {W/m-K}
    2080,                    !- Density {kg/m3}
    921,                     !- Specific Heat {J/kg-K}
    .65,                     !- Thermal Absorptance
    .65,                     !- Solar Absorptance
    .65;                     !- Visible Absorptance

  Material,
    ST01,                    !- Name
    MediumRough,             !- Roughness
    0.0254,                  !- Thickness {m}
    1.803,                   !- Conductivity {W/m-K}
    2243,                    !- Density {kg/m3}
    837,                     !- Specific Heat {J/kg-K}
    .65,                     !- Thermal Absorptance
    .65,                     !- Solar Absorptance
    .65;                     !- Visible Absorptance

  Material,
    AC02,                    !- Name
    MediumSmooth,            !- Roughness
    0.0127,                  !- Thickness {m}
    0.057,                   !- Conductivity {W/m-K}
    288,                     !- Density {kg/m3}
    1340,                    !- Specific Heat {J/kg-K}
    0.90,                    !- Thermal Absorptance
    0.75,                    !- Solar Absorptance
    0.75;                    !- Visible Absorptance

  Material,
    GP02,                    !- Name
    MediumSmooth,            !- Roughness
    0.0159,                  !- Thickness {m}
    0.160,                   !- Conductivity {W/m-K}
    801,                     !- Density {kg/m3}
    837,                     !- Specific Heat {J/kg-K}
    0.90,                    !- Thermal Absorptance
    0.75,                    !- Solar Absorptance
    0.75;                    !- Visible Absorptance

  Material,
    CC04,                    !- Name
    MediumRough,             !- Roughness
    0.1524,                  !- Thickness {m}
    1.311,                   !- Conductivity {W/m-K}
    2240,                    !- Density {kg/m3}
    838,                     !- Specific Heat {J/kg-K}
    0.90,                    !- Thermal Absorptance
    0.75,                    !- Solar Absorptance
    0.75;                    !- Visible Absorptance

  Material,
    CC15,                    !- Name
    MediumRough,             !- Roughness
    0.1524,                  !- Thickness {m}
    1.803,                   !- Conductivity {W/m-K}
    2240,                    !- Density {kg/m3}
    838,                     !- Specific Heat {J/kg-K}
    0.90,                    !- Thermal Absorptance
    0.75,                    !- Solar Absorptance
    0.75;                    !- Visible Absorptance

  Material,
    CC24,                    !- Name
    MediumRough,             !- Roughness
    0.1016,                  !- Thickness {m}
    0.361,                   !- Conductivity {W/m-K}
    1280,                    !- Density {kg/m3}
    838,                     !- Specific Heat {J/kg-K}
    0.90,                    !- Thermal Absorptance
    0.75,                    !- Solar Absorptance
    0.75;                    !- Visible Absorptance

  Material,
    CB31,                    !- Name
    MediumRough,             !- Roughness
    0.2032,                  !- Thickness {m}
    0.671,                   !- Conductivity {W/m-K}
    848,                     !- Density {kg/m3}
    838,                     !- Specific Heat {J/kg-K}
    0.90,                    !- Thermal Absorptance
    0.75,                    !- Solar Absorptance
    0.75;                    !- Visible Absorptance

  Material,
    PW03,                    !- Name
    MediumSmooth,            !- Roughness
    0.0127,                  !- Thickness {m}
    0.115,                   !- Conductivity {W/m-K}
    544,                     !- Density {kg/m3}
    1215,                    !- Specific Heat {J/kg-K}
    0.90,                    !- Thermal Absorptance
    0.75,                    !- Solar Absorptance
    0.75;                    !- Visible Absorptance

  Material,
    PW04,                    !- Name
    MediumSmooth,            !- Roughness
    0.0159,                  !- Thickness {m}
    0.115,                   !- Conductivity {W/m-K}
    544,                     !- Density {kg/m3}
    1215,                    !- Specific Heat {J/kg-K}
    0.90,                    !- Thermal Absorptance
    0.75,                    !- Solar Absorptance
    0.75;                    !- Visible Absorptance

  Material,
    PW05,                    !- Name
    MediumSmooth,            !- Roughness
    0.0191,                  !- Thickness {m}
    0.115,                   !- Conductivity {W/m-K}
    544,                     !- Density {kg/m3}
    1215,                    !- Specific Heat {J/kg-K}
    0.90,                    !- Thermal Absorptance
    0.75,                    !- Solar Absorptance
    0.75;                    !- Visible Absorptance

  Material,
    PW06,                    !- Name
    MediumSmooth,            !- Roughness
    0.0254,                  !- Thickness {m}
    0.115,                   !- Conductivity {W/m-K}
    544,                     !- Density {kg/m3}
    1215,                    !- Specific Heat {J/kg-K}
    0.90,                    !- Thermal Absorptance
    0.75,                    !- Solar Absorptance
    0.75;                    !- Visible Absorptance

  Material,
    MediumFurniture,         !- Name
    MediumSmooth,            !- Roughness
    0.57,                    !- Thickness {m}
    0.115,                   !- Conductivity {W/m-K}
    513,                     !- Density {kg/m3}
    1381,                    !- Specific Heat {J/kg-K}
    0.90,                    !- Thermal Absorptance
    0.75,                    !- Solar Absorptance
    0.75;                    !- Visible Absorptance

  Material,
    SOIL,                    !- Name
    Rough,                   !- Roughness
    0.6096,                  !- Thickness {m}
    1.731,                   !- Conductivity {W/m-K}
    1842,                    !- Density {kg/m3}
    1089,                    !- Specific Heat {J/kg-K}
    0.90,                    !- Thermal Absorptance
    0.75,                    !- Solar Absorptance
    0.75;                    !- Visible Absorptance

!-   ===========  ALL OBJECTS IN CLASS: MATERIAL:AIR ===========

  Material:AirGap,
    AL21,                    !- Name
    0.157;                   !- Thermal Resistance {m2-K/W}

  Material:AirGap,
    AL33,                    !- Name
    0.162;                   !- Thermal Resistance {m2-K/W}

!-   ===========  ALL OBJECTS IN CLASS: CONSTRUCTION ===========
!Construction,
!    WALL-1,                  !- Name
!    BK05,                    !- Outside Layer
!    PW06,                    !- Layer #2
!    IN-W,                    !- Layer #3
!    GP02;                    !- Layer #5

  Construction,
    ROOF-1,                  !- Name
    BR01,                    !- Outside Layer
    CC24,                    !- Layer 2
    IN-R,                    !- Layer 3
    AL33,                    !- Layer 4
    AC02;                    !- Layer 5

  Construction,
    ExtWall_Const,           !- Name
    ST01,                    !- Outside Layer
    IN-W,                    !- Layer 2
    AL21,                    !- Layer 3
    GP02;                    !- Layer 4

  Construction,
    FLOOR-1,                 !- Name
    CC24,                    !- Outside Layer
    CP01;                    !- Layer 2

  Construction,
    CEILING-1,               !- Name
    CP01,                    !- Outside Layer
    CC24;                    !- Layer 2

  Construction,
    SLAB-1,                  !- Name
    SOIL,                    !- Outside Layer
    CC15;                    !- Layer 2

  Construction,
    INTWALL-1,               !- Name
    GP02,                    !- Outside Layer
    AL21,                    !- Layer 2
    GP02;                    !- Layer 3

  Construction,
    Medium Furniture,        !- Name
    MediumFurniture;         !- Outside Layer

 ! BldgGeom.inc
!  Small Office
!
!   ===========  ALL OBJECTS IN CLASS: SURFACEGEOMETRY ===========

  GlobalGeometryRules,
    UpperLeftCorner,         !- Starting Vertex Position
    Counterclockwise,        !- Vertex Entry Direction
    Relative;                !- Coordinate System

! -----------------------   SCENARIO INFORMATION   ----------------------------
!   ===========  ALL OBJECTS IN CLASS: ZONE ===========

  ZONE,
    COMFENZone,              !- Name
    0,                       !- Direction of Relative North {deg}
    0,                       !- X Origin {m}
    0,                       !- Y Origin {m}
    0,                       !- Z Origin {m}
    1,                       !- Type
    1,                       !- Multiplier
    3.05,                    !- Ceiling Height {m}
    85.024841309;            !- Volume {m3}

!
!   ===========  ALL OBJECTS IN CLASS: SURFACE:HEATTRANSFER ===========
!   -------------------------  Exterior Wall  -------------------------

  BuildingSurface:Detailed,
    ExtWall,                 !- Name
    WALL,                    !- Surface Type
    ExtWall_Const,           !- Construction Name
    COMFENZone,              !- Zone Name
    Outdoors,                !- Outside Boundary Condition
    ,                        !- Outside Boundary Condition Object
    SunExposed,              !- Sun Exposure
    WindExposed,             !- Wind Exposure
    0.5,                     !- View Factor to Ground
    4,                       !- Number of Vertices
    6.1,4.57,3.05,  !- X,Y,Z ==> Vertex 1 {m}
    6.1,4.57,0.,  !- X,Y,Z ==> Vertex 2 {m}
    0.,4.57,0.,  !- X,Y,Z ==> Vertex 3 {m}
    0.,4.57,3.05;  !- X,Y,Z ==> Vertex 4 {m}

!   -------------------------  Floor  --------------------------------
 ! U-EFFECTIVE should NOT be used in DOE-2,  ! U-EFFECTIVE Error

  BuildingSurface:Detailed,
    Floor-COMFENZone,        !- Name
    FLOOR,                   !- Surface Type
    FLOOR-1,                 !- Construction Name
    COMFENZone,              !- Zone Name
    Surface,                 !- Outside Boundary Condition
    Floor-COMFENZone,        !- Outside Boundary Condition Object
    NoSun,                   !- Sun Exposure
    NoWind,                  !- Wind Exposure
    0.,                      !- View Factor to Ground
    4,                       !- Number of Vertices
    6.1,4.57,0.,  !- X,Y,Z ==> Vertex 1 {m}
    6.1,0.,0.,  !- X,Y,Z ==> Vertex 2 {m}
    0.,0.,0.,  !- X,Y,Z ==> Vertex 3 {m}
    0.,4.57,0.;  !- X,Y,Z ==> Vertex 4 {m}

!   --------------------  Left Interior Wall  ---------------------------

  BuildingSurface:Detailed,
    IntWall-Left,            !- Name
    WALL,                    !- Surface Type
    INTWALL-1,               !- Construction Name
    COMFENZone,              !- Zone Name
    Surface,                 !- Outside Boundary Condition
    IntWall-Left,            !- Outside Boundary Condition Object
    NoSun,                   !- Sun Exposure
    NoWind,                  !- Wind Exposure
    0.,                      !- View Factor to Ground
    4,                       !- Number of Vertices
    6.1,0.,3.05,  !- X,Y,Z ==> Vertex 1 {m}
    6.1,0.,0.,  !- X,Y,Z ==> Vertex 2 {m}
    6.1,4.57,0.,  !- X,Y,Z ==> Vertex 3 {m}
    6.1,4.57,3.05;  !- X,Y,Z ==> Vertex 4 {m}

!   --------------------  Back Interior Wall  ---------------------------

  BuildingSurface:Detailed,
    IntWall-Back,            !- Name
    WALL,                    !- Surface Type
    INTWALL-1,               !- Construction Name
    COMFENZone,              !- Zone Name
    Surface,                 !- Outside Boundary Condition
    IntWall-Back,            !- Outside Boundary Condition Object
    NoSun,                   !- Sun Exposure
    NoWind,                  !- Wind Exposure
    0.,                      !- View Factor to Ground
    4,                       !- Number of Vertices
    0.,0.,3.05,  !- X,Y,Z ==> Vertex 1 {m}
    0.,0.,0.,  !- X,Y,Z ==> Vertex 2 {m}
    6.1,0.,0.,  !- X,Y,Z ==> Vertex 3 {m}
    6.1,0.,3.05;  !- X,Y,Z ==> Vertex 4 {m}

!   --------------------  Right Interior Wall  -------------------------

  BuildingSurface:Detailed,
    IntWall-Right,           !- Name
    WALL,                    !- Surface Type
    INTWALL-1,               !- Construction Name
    COMFENZone,              !- Zone Name
    Surface,                 !- Outside Boundary Condition
    IntWall-Right,           !- Outside Boundary Condition Object
    NoSun,                   !- Sun Exposure
    NoWind,                  !- Wind Exposure
    0.,                      !- View Factor to Ground
    4,                       !- Number of Vertices
    0.,4.57,3.05,  !- X,Y,Z ==> Vertex 1 {m}
    0.,4.57,0.,  !- X,Y,Z ==> Vertex 2 {m}
    0.,0.,0.,  !- X,Y,Z ==> Vertex 3 {m}
    0.,0.,3.05;  !- X,Y,Z ==> Vertex 4 {m}

!   -------------------------  Ceiling  -------------------------------

  BuildingSurface:Detailed,
    Ceiling-COMFENZone,      !- Name
    CEILING,                 !- Surface Type
    INTWALL-1,               !- Construction Name
    COMFENZone,              !- Zone Name
    Surface,                 !- Outside Boundary Condition
    Ceiling-COMFENZone,      !- Outside Boundary Condition Object
    NoSun,                   !- Sun Exposure
    NoWind,                  !- Wind Exposure
    0.,                      !- View Factor to Ground
    4,                       !- Number of Vertices
    0.,4.57,3.05,  !- X,Y,Z ==> Vertex 1 {m}
    0.,0.,3.05,  !- X,Y,Z ==> Vertex 2 {m}
    6.1,0.,3.05,  !- X,Y,Z ==> Vertex 3 {m}
    6.1,4.57,3.05;  !- X,Y,Z ==> Vertex 4 {m}

!   ===========  ALL OBJECTS IN CLASS: Daylighting

  Daylighting:Controls,
    COMFENZone,              !- Zone Name
    1,                       !- Total Daylighting Reference Points
    3.05,                    !- X-Coordinate of First Reference Point {m}
    1.52,                    !- Y-Coordinate of First Reference Point {m}
    .762,                    !- Z-Coordinate of First Reference Point {m}
    3.05,                    !- X-Coordinate of Second Reference Point {m}
    0,                       !- Y-Coordinate of Second Reference Point {m}
    .762,                    !- Z-Coordinate of Second Reference Point {m}
    0,                       !- Fraction of Zone Controlled by First Reference Point
    0,                       !- Fraction of Zone Controlled by Second Reference Point
    538.195,                 !- Illuminance Setpoint at First Reference Point {lux}
    538.195,                 !- Illuminance Setpoint at Second Reference Point {lux}
    1,                       !- Lighting Control Type
    0,                       !- Glare Calculation Azimuth Angle of View Direction Clockwise from Zone y-Axis {deg}
    22,                      !- Maximum Allowable Discomfort Glare Index
    .1,                      !- Minimum Input Power Fraction for Continuous Dimming Control
    .05,                     !- Minimum Light Output Fraction for Continuous Dimming Control
    3,                       !- Number of Stepped Control Steps
    1;                       !- Probability Lighting will be Reset When Needed in Manual Stepped Control

! Space Condition
!  Small Office
! Edits to convert from COMFEN2 to COMFEN3 (EPlus 2.1) started by Robin 2/2/09
! Took out sections for Zones 2-4
! Changed ZONE-NORTHActSched t ActivitySched
! Replaced zone name of ZONE-1 to COMFENZone
! Changed names to Lights_Area, People_Area, Equip_Area
! Changed Area_zone1 to FloorArea
!--------------------------------------------------------
! SPACE CONDITIONS FOR SCENARIO
!--------------------------------------------------------

  People,
    COMFENZone People 1,     !- Name
    COMFENZone,              !- Zone or ZoneList Name
    OCC-OFC,                 !- Number of People Schedule Name
    People,                  !- Number of People Calculation Method
    1,                       !- Number of People
    ,                        !- People per Zone Floor Area {person/m2}
    ,                        !- Zone Floor Area per Person {m2/person}
    0.3,                     !- Fraction Radiant
    ,                        !- Sensible Heat Fraction
    ActivitySched,           !- Activity Level Schedule Name
    ,                        !- Carbon Dioxide Generation Rate {m3/s-W}
    ,                        !- Enable ASHRAE 55 Comfort Warnings
    zoneaveraged,            !- Mean Radiant Temperature Calculation Type
    ,                        !- Surface Name/Angle Factor List Name
    Work Eff Sch,            !- Work Efficiency Schedule Name
    Clothing Sch,            !- Clothing Insulation Schedule Name
    Air velo Sch,            !- Air Velocity Schedule Name
    Fanger;                  !- Thermal Comfort Model 1 Type

  Lights,
    COMFENZone Lights,       !- Name
    COMFENZone,              !- Zone or ZoneList Name
    LIGHT-OFC,               !- Schedule Name
    LightingLevel,           !- Design Level Calculation Method
    299.956481934,           !- Lighting Level {W}
    ,                        !- Watts per Zone Floor Area {W/m2}
    ,                        !- Watts per Person {W/person}
    0.,                      !- Return Air Fraction
    0.67,                    !- Fraction Radiant
    0.1,                     !- Fraction Visible
    1.,                      !- Fraction Replaceable
    GeneralLights;           !- End-Use Subcategory

  ElectricEquipment,
    COMFENZone ElecEq,       !- Name
    COMFENZone,              !- Zone or ZoneList Name
    EQUIP-OFC,               !- Schedule Name
    EquipmentLevel,          !- Design Level Calculation Method
    224.967361450,           !- Design Level {W}
    ,                        !- Watts per Zone Floor Area {W/m2}
    ,                        !- Watts per Person {W/person}
    0.,                      !- Fraction Latent
    0.7,                     !- Fraction Radiant
    0.,                      !- Fraction Lost
    0;                       !- End-Use Subcategory

  ZoneInfiltration:DesignFlowRate,
    COMFENZone Infil,        !- Name
    COMFENZone,              !- Zone or ZoneList Name
    INF-OFC,                 !- Schedule Name
    Flow/Zone,               !- Design Flow Rate Calculation Method
    0.70854039E-02,          !- Design Flow Rate {m3/s}
    ,                        !- Flow per Zone Floor Area {m3/s-m2}
    ,                        !- Flow per Exterior Surface Area {m3/s-m2}
    ,                        !- Air Changes per Hour {1/hr}
    1.,                      !- Constant Term Coefficient
    0.,                      !- Temperature Term Coefficient
    0.,                      !- Velocity Term Coefficient
    0.;                      !- Velocity Squared Term Coefficient

! Schedule.inc
!  Small Office

  ScheduleTypeLimits,
    AnyNumber,               !- Name
    ,                        !- Lower Limit Value
    ,                        !- Upper Limit Value
    CONTINUOUS;              !- Numeric Type

  ScheduleTypeLimits,
    On/OffHV,                !- Name
    0,                       !- Lower Limit Value
    1,                       !- Upper Limit Value
    DISCRETE;                !- Numeric Type
